Data/networks/opendssNetworks/network_2/Feeder_2/LineCode.txt
New LineCode..007_PSC nphases=3 R1=3.97 X1=0.099 R0=3.97 X0=0.099 C1=0 C0=0 Units=km
New LineCode.16_PSC nphases=3 R1=1.15 X1=0.088 R0=1.2 X0=0.088 C1=0 C0=0 Units=km
New LineCode.25_SAC_PC nphases=3 R1=1.2 X1=0.084 R0=1.3 X0=0.084 C1=0 C0=0 Units=km
New LineCode.25_SAC_XC nphases=3 R1=1.2 X1=0.079 R0=1.3 X0=0.079 C1=0 C0=0 Units=km
New LineCode.2c_.007 nphases=3 R1=3.97 X1=0.099 R0=3.97 X0=0.099 C1=0 C0=0 Units=km
New LineCode.2c_.0145 nphases=3 R1=1.903 X1=0.09 R0=1.903 X0=0.09 C1=0 C0=0 Units=km
New LineCode.2c_.0225 nphases=3 R1=1.257 X1=0.085 R0=1.257 X0=0.085 C1=0 C0=0 Units=km
New LineCode.2c_.04 nphases=3 R1=0.708 X1=0.079 R0=0.708 X0=0.079 C1=0 C0=0 Units=km
New LineCode.35_SAC_XC nphases=3 R1=0.868 X1=0.077 R0=0.91 X0=0.077 C1=0 C0=0 Units=km
New LineCode.35_SAC_PC nphases=3 R1=0.868 X1=0.077 R0=0.91 X0=0.077 C1=0 C0=0 Units=km
New LineCode.3c_185_ASN nphases=3 R1=0.166 X1=0.069 R0=0.625 X0=0.088 C1=0 C0=0 Units=km
New LineCode.3c_25_SAC nphases=3 R1=1.2 X1=0.077 R0=5.1 X0=0.116 C1=0 C0=0 Units=km
New LineCode.3c_300_ASN nphases=3 R1=0.102 X1=0.068 R0=0.384 X0=0.085 C1=0 C0=0 Units=km
New LineCode.3c_300_SAC_XC nphases=3 R1=0.102 X1=0.073 R0=0.594 X0=0.105 C1=0 C0=0 Units=km
New LineCode.3c_95_SAC_XC nphases=3 R1=0.322 X1=0.074 R0=1.282 X0=0.125 C1=0 C0=0 Units=km
New LineCode.4_PC nphases=3 R1=4.61 X1=0.094 R0=4.8 X0=0.094 C1=0 C0=0 Units=km
New LineCode.4_PSC nphases=3 R1=4.61 X1=0.093 R0=4.8 X0=0.093 C1=0 C0=0 Units=km
New LineCode.4_XC nphases=3 R1=4.61 X1=0.091 R0=4.8 X0=0.091 C1=0 C0=0 Units=km
New LineCode.4_XSC nphases=3 R1=4.61 X1=0.091 R0=4.8 X0=0.091 C1=0 C0=0 Units=km
New LineCode.4c_.04 nphases=3 R1=0.708 X1=0.079 R0=2.32 X0=0.093 C1=0 C0=0 Units=km
New LineCode.4c_.06 nphases=3 R1=0.469 X1=0.075 R0=1.581 X0=0.091 C1=0 C0=0 Units=km
New LineCode.4c_.06_UA nphases=3 R1=0.469 X1=0.075 R0=1.581 X0=0.091 C1=0 C0=0 Units=km
New LineCode.4c_.12 nphases=3 R1=0.242 X1=0.072 R0=0.851 X0=0.079 C1=0 C0=0 Units=km
New LineCode.4c_.12_UA nphases=3 R1=0.242 X1=0.072 R0=0.851 X0=0.079 C1=0 C0=0 Units=km
New LineCode.4c_.15 nphases=3 R1=0.195 X1=0.07 R0=0.69 X0=0.078 C1=0 C0=0 Units=km
New LineCode.4c_.25 nphases=3 R1=0.124 X1=0.069 R0=0.441 X0=0.077 C1=0 C0=0 Units=km
New LineCode.4c_.25_UA nphases=3 R1=0.124 X1=0.069 R0=0.441 X0=0.077 C1=0 C0=0 Units=km
New LineCode.4c_.2_SAC nphases=3 R1=0.23 X1=0.069 R0=0.782 X0=0.085 C1=0 C0=0 Units=km
New LineCode.4c_.7 nphases=3 R1=0.059 X1=0.067 R0=0.215 X0=0.074 C1=0 C0=0 Units=km
New LineCode.4c_25_SAC nphases=3 R1=1.2 X1=0.079 R0=1.3 X0=0.079 C1=0 C0=0 Units=km
New LineCode.4c_300_SAC nphases=3 R1=0.102 X1=0.073 R0=0.291 X0=0.087 C1=0 C0=0 Units=km
